&clm_inparm
 albice = 0.60,0.40
 co2_ppmv = 284.7
 co2_type = 'constant'
 create_crop_landunit = .false.
 dtime = 1800
 fatmlndfrc = '/discover/nobackup/projects/nca/ytian/CESM_INPUT_DATA/share/domains/domain.lnd.fv0.9x1.25_gx1v6.090309.nc'
 finidat = '/discover/nobackup/projects/nca/ytian/CESM_INPUT_DATA/lnd/clm2/initdata_map/clmi.I1850CRUCLM45SP.0521-01-01.0.9x1.25_g1v6_simyr1850_c130506.nc'
 fpftcon = '/discover/nobackup/projects/nca/ytian/CESM_INPUT_DATA/lnd/clm2/pftdata/pft-physiology.c130503.nc'
 fsnowaging = '/discover/nobackup/projects/nca/ytian/CESM_INPUT_DATA/lnd/clm2/snicardata/snicar_drdt_bst_fit_60_c070416.nc'
 fsnowoptics = '/discover/nobackup/projects/nca/ytian/CESM_INPUT_DATA/lnd/clm2/snicardata/snicar_optics_5bnd_c090915.nc'
 fsurdat = '/discover/nobackup/projects/nca/ytian/CESM_INPUT_DATA/lnd/clm2/surfdata_map/surfdata_0.9x1.25_simyr1850_c130415.nc'
 maxpatch_glcmec = 0
 more_vertlayers = .false.
 nsegspc = 20
 urban_hac = 'ON'
 urban_traffic = .false.
/
&ndepdyn_nml
/
&popd_streams
/
&light_streams
/
&clm_hydrology1_inparm
/
&clm_soilhydrology_inparm
/
#!--------------------------------------------------------------------------------------------------------------------------
#! lnd_in:: Comment:
#! This namelist was created using the following command-line:
#!     /gpfsm/dnb43/projects/p03/Projects/NLDAS/CESM/cesm1_2_2_dev/models/lnd/clm/bld/CLM build-namelist -infile /home/ytian/proj-disk/Projects/NLDAS/CESM/CASES/LIS-CLM4.5SP/Buildconf/clmconf/cesm_namelist -csmdata /discover/nobackup/projects/nca/ytian/CESM_INPUT_DATA -inputdata /home/ytian/proj-disk/Projects/NLDAS/CESM/CASES/LIS-CLM4.5SP/Buildconf/clm.input_data_list -ignore_ic_year -namelist &clm_inparm start_ymd = 00010101  / -use_case 1850_control -res 0.9x1.25 -clm_start_type default -l_ncpl 48 -lnd_frac /discover/nobackup/projects/nca/ytian/CESM_INPUT_DATA/share/domains/domain.lnd.fv0.9x1.25_gx1v6.090309.nc -glc_nec 0 -co2_ppmv 284.7 -co2_type constant -config /home/ytian/proj-disk/Projects/NLDAS/CESM/CASES/LIS-CLM4.5SP/Buildconf/clmconf/config_cache.xml
#! For help on options use: /gpfsm/dnb43/projects/p03/Projects/NLDAS/CESM/cesm1_2_2_dev/models/lnd/clm/bld/CLM build-namelist -help
#!--------------------------------------------------------------------------------------------------------------------------
